README.md
setup.py
fowt_force_gen/__init__.py
fowt_force_gen/buoy.py
fowt_force_gen/fast_io.py
fowt_force_gen/filegen.py
fowt_force_gen/force_gen.py
fowt_force_gen/moortune.py
fowt_force_gen/parse.py
fowt_force_gen/post_fast.py
fowt_force_gen/pre_fast.py
fowt_force_gen/run_fast.py
fowt_force_gen/windbins.py
fowt_force_gen.egg-info/PKG-INFO
fowt_force_gen.egg-info/SOURCES.txt
fowt_force_gen.egg-info/dependency_links.txt
fowt_force_gen.egg-info/not-zip-safe
fowt_force_gen.egg-info/top_level.txt
fowt_force_gen/.filepaths/fast_file_path.txt
fowt_force_gen/.filepaths/turbsim_file_path.txt
fowt_force_gen/example_files/example1_MoorDyn.dat
fowt_force_gen/example_files/example4.dat
fowt_force_gen/example_files/post-fast/example2_11.62mps_0deg_Climate0.MD.Line1.out
fowt_force_gen/example_files/post-fast/example2_11.62mps_0deg_Climate0.MD.Line2.out
fowt_force_gen/example_files/post-fast/example2_11.62mps_0deg_Climate0.MD.Line3.out
fowt_force_gen/example_files/post-fast/example2_11.62mps_0deg_Climate0.outb
fowt_force_gen/example_files/post-fast/example2_14.94mps_180deg_Climate1.MD.Line1.out
fowt_force_gen/example_files/post-fast/example2_14.94mps_180deg_Climate1.MD.Line2.out
fowt_force_gen/example_files/post-fast/example2_14.94mps_180deg_Climate1.MD.Line3.out
fowt_force_gen/example_files/post-fast/example2_14.94mps_180deg_Climate1.outb
fowt_force_gen/fast_input_files/NRELOffshrBsline5MW_AeroDyn_blade.dat
fowt_force_gen/fast_input_files/NRELOffshrBsline5MW_Blade.dat
fowt_force_gen/fast_input_files/NRELOffshrBsline5MW_OC3Hywind_AeroDyn15.dat
fowt_force_gen/fast_input_files/OC3Hywind_ElastoDyn.dat
fowt_force_gen/fast_input_files/OC3Hywind_ElastoDyn_Tower.dat
fowt_force_gen/fast_input_files/OC3Hywind_ServoDyn.dat
fowt_force_gen/fast_input_files/OC4Semi_ElastoDyn.dat
fowt_force_gen/fast_input_files/OC4Semi_ElastoDyn_Tower.dat
fowt_force_gen/fast_input_files/OC4Semi_ServoDyn.dat
fowt_force_gen/fast_input_files/AeroData/Cylinder1.dat
fowt_force_gen/fast_input_files/AeroData/Cylinder2.dat
fowt_force_gen/fast_input_files/AeroData/DU21_A17.dat
fowt_force_gen/fast_input_files/AeroData/DU25_A17.dat
fowt_force_gen/fast_input_files/AeroData/DU30_A17.dat
fowt_force_gen/fast_input_files/AeroData/DU35_A17.dat
fowt_force_gen/fast_input_files/AeroData/DU40_A17.dat
fowt_force_gen/fast_input_files/AeroData/NACA64_A17.dat
fowt_force_gen/fast_input_files/Airfoils/Cylinder1.dat
fowt_force_gen/fast_input_files/Airfoils/Cylinder1_coords.txt
fowt_force_gen/fast_input_files/Airfoils/Cylinder2.dat
fowt_force_gen/fast_input_files/Airfoils/Cylinder2_coords.txt
fowt_force_gen/fast_input_files/Airfoils/DU21_A17.dat
fowt_force_gen/fast_input_files/Airfoils/DU21_A17_coords.txt
fowt_force_gen/fast_input_files/Airfoils/DU25_A17.dat
fowt_force_gen/fast_input_files/Airfoils/DU25_A17_coords.txt
fowt_force_gen/fast_input_files/Airfoils/DU30_A17.dat
fowt_force_gen/fast_input_files/Airfoils/DU30_A17_coords.txt
fowt_force_gen/fast_input_files/Airfoils/DU35_A17.dat
fowt_force_gen/fast_input_files/Airfoils/DU35_A17_coords.txt
fowt_force_gen/fast_input_files/Airfoils/DU40_A17.dat
fowt_force_gen/fast_input_files/Airfoils/DU40_A17_coords.txt
fowt_force_gen/fast_input_files/Airfoils/NACA64_A17.dat
fowt_force_gen/fast_input_files/Airfoils/NACA64_A17_coords.txt
fowt_force_gen/fast_input_files/HydroData/marin_semi.1
fowt_force_gen/fast_input_files/HydroData/marin_semi.12d
fowt_force_gen/fast_input_files/HydroData/marin_semi.12s
fowt_force_gen/fast_input_files/HydroData/marin_semi.3
fowt_force_gen/fast_input_files/HydroData/marin_semi.hst
fowt_force_gen/fast_input_files/HydroData/spar.1
fowt_force_gen/fast_input_files/HydroData/spar.3
fowt_force_gen/fast_input_files/HydroData/spar.hst
fowt_force_gen/fast_input_files/ServoData/DISCON_ITIBarge_Win32.dll
fowt_force_gen/fast_input_files/ServoData/DISCON_ITIBarge_x64.dll
fowt_force_gen/fast_input_files/ServoData/DISCON_OC3Hywind_Win32.dll
fowt_force_gen/fast_input_files/ServoData/DISCON_OC3Hywind_x64.dll
fowt_force_gen/fast_input_files/ServoData/DISCON_Win32.dll
fowt_force_gen/fast_input_files/ServoData/DISCON_x64.dll
fowt_force_gen/template_files/IECKAI_template.inp
fowt_force_gen/template_files/InflowWind_template.dat
fowt_force_gen/template_files/OC3Hywind_ElastoDyn_template.dat
fowt_force_gen/template_files/OC3Hywind_HydroDyn_template.dat
fowt_force_gen/template_files/OC3Hywind_MoorDyn_fine_template.dat
fowt_force_gen/template_files/OC3Hywind_MoorDyn_rough_template.dat
fowt_force_gen/template_files/OC3Hywind_OpenFAST_template.fst
fowt_force_gen/template_files/OC4Semi_ElastoDyn_template.dat
fowt_force_gen/template_files/OC4Semi_HydroDyn_template.dat
fowt_force_gen/template_files/OC4Semi_MoorDyn_fine_template.dat
fowt_force_gen/template_files/OC4Semi_MoorDyn_rough_template.dat
fowt_force_gen/template_files/OC4Semi_OpenFAST_template.fst
fowt_force_gen/tests/__init__.py
fowt_force_gen/tests/test_buoy.py
fowt_force_gen/tests/test_filegen.py
fowt_force_gen/tests/test_moortune.py
fowt_force_gen/tests/test_parse.py
fowt_force_gen/tests/test_windbins.py
fowt_force_gen/tests/test_data/compare_baseline_surge.csv
fowt_force_gen/tests/test_data/compare_rel.mat
fowt_force_gen/tests/test_data/compare_surge.mat
fowt_force_gen/tests/test_data/test_currentdata_normal.txt
fowt_force_gen/tests/test_data/test_currentdata_overflow.txt
fowt_force_gen/tests/test_data/test_currentdata_string.txt
fowt_force_gen/tests/test_data/test_datetime_normal.txt
fowt_force_gen/tests/test_data/test_datetime_oldstyle.txt
fowt_force_gen/tests/test_data/test_datetime_skip.txt
fowt_force_gen/tests/test_data/test_metdata_normal.txt
fowt_force_gen/tests/test_data/test_metdata_overflow.txt
fowt_force_gen/tests/test_data/test_winddata_normal.txt
fowt_force_gen/tests/test_data/test_winddata_overflow.txt
fowt_force_gen/tests/test_data/test_winddata_realdata.txt
fowt_force_gen/tests/test_fast/compare_fst_bulk_10mps_0deg_Climate0.fst
fowt_force_gen/tests/test_fast/compare_fst_bulk_10mps_0deg_Climate1.fst
fowt_force_gen/tests/test_fast/compare_fst_bulk_11.4mps_180deg_Climate0.fst
fowt_force_gen/tests/test_fast/compare_fst_bulk_11.4mps_180deg_Climate1.fst
fowt_force_gen/tests/test_fast/compare_fst_file_1.fst
fowt_force_gen/tests/test_fast/compare_fst_file_2.fst
fowt_force_gen/tests/test_fast/compare_fst_file_3.fst
fowt_force_gen/tests/test_fast/compare_hydrodyn_Climate0.dat
fowt_force_gen/tests/test_fast/compare_hydrodyn_Climate1.dat
fowt_force_gen/tests/test_fast/compare_inflowwind_10mps_0deg.dat
fowt_force_gen/tests/test_fast/compare_inflowwind_10mps_180deg.dat
fowt_force_gen/tests/test_fast/compare_inflowwind_11.4mps_0deg.dat
fowt_force_gen/tests/test_fast/compare_inflowwind_11.4mps_180deg.dat
fowt_force_gen/tests/test_fast/compare_inp_10mps_IECKAI.bts
fowt_force_gen/tests/test_fast/compare_inp_10mps_IECKAI.inp
fowt_force_gen/tests/test_fast/compare_inp_11.4mps_IECKAI.bts
fowt_force_gen/tests/test_fast/compare_inp_11.4mps_IECKAI.inp
fowt_force_gen/tests/test_fast/compare_md_file_1.dat
fowt_force_gen/tests/test_fast/compare_md_file_2.dat
fowt_force_gen/tests/test_fast/compare_output.MD.Line1.out
fowt_force_gen/tests/test_fast/compare_output.MD.Line2.out
fowt_force_gen/tests/test_fast/compare_output.MD.Line3.out
fowt_force_gen/tests/test_fast/compare_output.outb
fowt_force_gen/tests/test_fast/compare_output_1seg.MD.Line1.out
fowt_force_gen/tests/test_fast/compare_output_1seg.MD.Line2.out
fowt_force_gen/tests/test_fast/compare_output_1seg.MD.Line3.out
fowt_force_gen/tests/test_fast/compare_output_1seg.outb
fowt_force_gen/tests/test_fast/compare_tune_fine.fst
fowt_force_gen/tests/test_fast/compare_tune_fine_fewercrossings.outb
fowt_force_gen/tests/test_fast/compare_tune_fine_hydrodyn.dat
fowt_force_gen/tests/test_fast/compare_tune_fine_moordyn.dat
fowt_force_gen/tests/test_fast/compare_tune_fine_morecrossings.outb
fowt_force_gen/tests/test_fast/compare_tune_fine_samecrossings.outb
fowt_force_gen/tests/test_fast/compare_tune_fine_untuned.outb
fowt_force_gen/tests/test_fast/compare_tune_rough.fst
fowt_force_gen/tests/test_fast/compare_tune_rough_hydrodyn.dat
fowt_force_gen/tests/test_fast/compare_tune_rough_moordyn.dat
fowt_force_gen/tests/test_fast/compare_tune_rough_nouplift.outb
fowt_force_gen/tests/test_fast/compare_tune_rough_uplift.outb
fowt_force_gen/tests/test_fast/test.outb
fowt_force_gen/tests/test_fast/test_fst_bulk/compare_hydrodyn_Climate0.dat
fowt_force_gen/tests/test_fast/test_fst_bulk/compare_hydrodyn_Climate1.dat
fowt_force_gen/tests/test_fast/test_fst_bulk/compare_inflowwind_10mps_0deg.dat
fowt_force_gen/tests/test_fast/test_fst_bulk/compare_inflowwind_11.4mps_180deg.dat
fowt_force_gen/tests/test_fast/test_fst_bulk/other_file_to_check_file_catching.dat
fowt_force_gen/tuning_files/OC3Hywind_tuning_baseline.outb
fowt_force_gen/tuning_files/OC3Hywind_tuning_fine.fst
fowt_force_gen/tuning_files/OC3Hywind_tuning_fine_ElastoDyn.dat
fowt_force_gen/tuning_files/OC3Hywind_tuning_rough.fst
fowt_force_gen/tuning_files/OC3Hywind_tuning_rough_ElastoDyn.dat
fowt_force_gen/tuning_files/OC4Semi_tuning_baseline.outb
fowt_force_gen/tuning_files/OC4Semi_tuning_fine.fst
fowt_force_gen/tuning_files/OC4Semi_tuning_fine_ElastoDyn.dat
fowt_force_gen/tuning_files/OC4Semi_tuning_rough.fst
fowt_force_gen/tuning_files/OC4Semi_tuning_rough_ElastoDyn.dat