fowt_force_gen/__init__.py,sha256=47DEQpj8HBSa-_TImW-5JCeuQeRkm5NMpJWZG3hSuFU,0
fowt_force_gen/buoy.py,sha256=25iSUz9jGCqSM31NO76oWZsBhIhf7X4bg9xWt9d5SpI,6272
fowt_force_gen/fast_io.py,sha256=Y9xQh7ye-gOX9DB0nOqPsNyPGZa_HAVAf3ZkhUEmIiI,7015
fowt_force_gen/filegen.py,sha256=ERVKJJUgRBkfagIcsgYTRTr6DsbnQ6xJKr7TcMmLLic,22195
fowt_force_gen/force_gen.py,sha256=QTac-Kruxazgw82oF9ac_MKgjdcqcqaBZjwNkFv37UM,7697
fowt_force_gen/moortune.py,sha256=cjXLv9Y9kUlKnKAjxqSsfXCh0ODrUujboSltZOfscP4,18205
fowt_force_gen/parse.py,sha256=ck-s07EsshUcOevDiaQanZL-V0w5-U0N2Yk8TK8ulC8,7187
fowt_force_gen/post_fast.py,sha256=YkPNys3ZYI1dUowFbbMP_t-gJmk6Z9zlzv8Mh3S1Frs,2382
fowt_force_gen/pre_fast.py,sha256=2oxc53e0EGpuDToLgqdWbM58Zn9exDG7xGzhSL97nI4,6527
fowt_force_gen/run_fast.py,sha256=hcWNjg3Q5AO9cRqHlw_mb9-9wNOx5cjQ1EqFURZU43w,551
fowt_force_gen/windbins.py,sha256=0osnaDhEdFlNmDekeBqayG-PFDVEQRBNCbHBQcCg7H8,14613
fowt_force_gen/.filepaths/fast_file_path.txt,sha256=O39SzygQaRO1bPv5XCjkeBKo2Vi9tq8_mWITx9O1tms,33
fowt_force_gen/.filepaths/turbsim_file_path.txt,sha256=Y19ykuL6Mn9Rvz2ctIVWQ_RbNrN_ZtY4lNHPM99rvnA,35
fowt_force_gen/example_files/example1_MoorDyn.dat,sha256=M9cSPYqpSsIU4rk-61JJI6fjkDcSio6jxL4w3UaaL4Y,2457
fowt_force_gen/example_files/example4.dat,sha256=eljFXISJs-qu3ZsLf2Ub8G471T5Nj8Z6o8x-LMjC-dA,14128
fowt_force_gen/example_files/post-fast/example2_11.62mps_0deg_Climate0.MD.Line1.out,sha256=yk6Vu6b74C70_md3n3E1V6Fdc4O13P1e1CtUSFWt_Bc,374636
fowt_force_gen/example_files/post-fast/example2_11.62mps_0deg_Climate0.MD.Line2.out,sha256=LCpieO4LRwrf-ZW03z8mbShD-1-vWrujCASZ38FEfOY,374636
fowt_force_gen/example_files/post-fast/example2_11.62mps_0deg_Climate0.MD.Line3.out,sha256=hoQhqQqr8GyBbn-4zajbwndunWykGlDwUgPutr7dt3M,374636
fowt_force_gen/example_files/post-fast/example2_11.62mps_0deg_Climate0.outb,sha256=-XLpw4kqLbkLxq5d1N9LdVDoag3KAS5QoSnZ9Pattzo,510744
fowt_force_gen/example_files/post-fast/example2_14.94mps_180deg_Climate1.MD.Line1.out,sha256=Ffrd9X07N1A-L4JvfpUg6DgLSfsODgW7--f3OvpIjXk,374636
fowt_force_gen/example_files/post-fast/example2_14.94mps_180deg_Climate1.MD.Line2.out,sha256=nEXoTAq8BFUmfEWwjE9ARv_3aGN9KZ5GceFy8s2I7tQ,374636
fowt_force_gen/example_files/post-fast/example2_14.94mps_180deg_Climate1.MD.Line3.out,sha256=Hr6mf2oHQGPYq9NkFFgFzm17tAE7pXkSLaUKbZlM1fg,374636
fowt_force_gen/example_files/post-fast/example2_14.94mps_180deg_Climate1.outb,sha256=zU9UmxQS9Y-qMYogDfQ-djGhWYjYZU1X9FKhuJrYFOg,510744
fowt_force_gen/fast_input_files/NRELOffshrBsline5MW_AeroDyn_blade.dat,sha256=YS4S2GrDo9wDlbOS08BCOqAE3yIz3nGjaReSbBxaXkY,2654
fowt_force_gen/fast_input_files/NRELOffshrBsline5MW_Blade.dat,sha256=O3kn1uJkoOujk4fMr-JSZa6z4D_jIiBkOx76Ub0pqqc,6727
fowt_force_gen/fast_input_files/NRELOffshrBsline5MW_OC3Hywind_AeroDyn15.dat,sha256=xQY9_isgsQ4eTtGY4FgD4YnHmenwfKFLglAMbYUfKAw,8130
fowt_force_gen/fast_input_files/OC3Hywind_ElastoDyn.dat,sha256=oIkkqoxe3Qebu8Th283tbeNnWDNd3541qUycfBajtpQ,20047
fowt_force_gen/fast_input_files/OC3Hywind_ElastoDyn_Tower.dat,sha256=H98_WgR-Q5o34ELvc51BCUbFHFBIWGOXFATNNIcizYU,3552
fowt_force_gen/fast_input_files/OC3Hywind_ServoDyn.dat,sha256=tmEZ4IHcR_KjZbldjHl7eMP4fdFr8rEWOet16klj30c,11073
fowt_force_gen/fast_input_files/OC4Semi_ElastoDyn.dat,sha256=zg2zYQKUY0yoHQ7_JX_1VN7q2rirNNNxIloWn_6NyiM,14051
fowt_force_gen/fast_input_files/OC4Semi_ElastoDyn_Tower.dat,sha256=Im036w1bT3s4e30-CymhXPlaVO4RRvtZVCav-vknm4M,3594
fowt_force_gen/fast_input_files/OC4Semi_ServoDyn.dat,sha256=1sVRM0K-IwICJHT4VWpcc350DODSFafuV4IgEjk81w0,11073
fowt_force_gen/fast_input_files/AeroData/Cylinder1.dat,sha256=St4h9h0vKODpRWLnII5A5WKkqv3syy2WG2ags6O3pIs,711
fowt_force_gen/fast_input_files/AeroData/Cylinder2.dat,sha256=WR0TNkUq2ZM5JnXwp6dhxfFjRhJbTg4Kkwk-bzQc434,711
fowt_force_gen/fast_input_files/AeroData/DU21_A17.dat,sha256=nkkyoEewCcBhj4ak8oU45wQ5WrpjW-MxecwYW0U-74o,6035
fowt_force_gen/fast_input_files/AeroData/DU25_A17.dat,sha256=MqS94qz7MS5bYaSuFl2MJQOA04tkFC__V2Gv8n3lXW4,5999
fowt_force_gen/fast_input_files/AeroData/DU30_A17.dat,sha256=iTChdx7Kor_ZYcRgxz4WHFbjmd0trStwaxMF3QqFJ_Q,6071
fowt_force_gen/fast_input_files/AeroData/DU35_A17.dat,sha256=W8_eONOKwcipyl_7RudkqljyQQ7yg5NEwklupcTWVHg,5783
fowt_force_gen/fast_input_files/AeroData/DU40_A17.dat,sha256=yDHVbq1osXhrU235ebDtYcdoq2ZPgpWI9Vc409VIJNE,5819
fowt_force_gen/fast_input_files/AeroData/NACA64_A17.dat,sha256=QlLS0w2x1FdNKS-K_NCONSTAvqp0x5zoxFaBxcOohlI,5497
fowt_force_gen/fast_input_files/Airfoils/Cylinder1.dat,sha256=gy9gS9_R8EgN7OkjLvoK3t6Tmj6xXaGUADU8lQICFys,6883
fowt_force_gen/fast_input_files/Airfoils/Cylinder1_coords.txt,sha256=OjpAwe7nQXhjV7q2-0muN7kl3PR6Fq7Ag-hxLFs7tZU,8396
fowt_force_gen/fast_input_files/Airfoils/Cylinder2.dat,sha256=U723GedeREBkrwMYWdvkIJpSq21Fq2MMHaYiSvjAVxw,6952
fowt_force_gen/fast_input_files/Airfoils/Cylinder2_coords.txt,sha256=V5KM8fAgV-NPRbAMcfwkaNf8TWNgUEemKQfiXe5GN-A,8400
fowt_force_gen/fast_input_files/Airfoils/DU21_A17.dat,sha256=AFK3NNx33TsTlo_TMI7RYJ-4fko7DVRqmfV920K5z_Q,12536
fowt_force_gen/fast_input_files/Airfoils/DU21_A17_coords.txt,sha256=tNY1BhSw-71iYuw0DHjujrBWLd_Iz2vfIiIo5zk5LKQ,7865
fowt_force_gen/fast_input_files/Airfoils/DU25_A17.dat,sha256=3aUQ7b1PHW_pavynu884VKW8W6OtnbCAAZAoerC9RCc,12458
fowt_force_gen/fast_input_files/Airfoils/DU25_A17_coords.txt,sha256=COfTRe8-Bm8Fnx_PX5t3nmp-RV_y9pRJMbInkW13MOc,8060
fowt_force_gen/fast_input_files/Airfoils/DU30_A17.dat,sha256=igTHLZUkkxuL3r2XX95PCAgvboGlYE4vE9kj0iG1p_o,12577
fowt_force_gen/fast_input_files/Airfoils/DU30_A17_coords.txt,sha256=-2PonhxTwyeM1CClqzZAKk1gmFDxhp9AE4SKBB56XJM,8066
fowt_force_gen/fast_input_files/Airfoils/DU35_A17.dat,sha256=9EAHbzhofZBLM7iiL0EiZ_Oaztwqa2-m-7vIkzul0RI,12263
fowt_force_gen/fast_input_files/Airfoils/DU35_A17_coords.txt,sha256=zbs9LVc1sP1r56nEtEOboqxueMNlJlfvQJBznC3Ah3o,8066
fowt_force_gen/fast_input_files/Airfoils/DU40_A17.dat,sha256=B-5rLs1FyP9cqbAl54n7JPdWSc3TcsVFmAJGN6ZTYGU,12302
fowt_force_gen/fast_input_files/Airfoils/DU40_A17_coords.txt,sha256=UAjJqpGtpHyte63ZMwujbHIBC9vwRQhSz17YHJLPZXk,8066
fowt_force_gen/fast_input_files/Airfoils/NACA64_A17.dat,sha256=IOg2zycFA6TqHU2NgMvOPm6lxbVHChJPQnX59du_ZoQ,11955
fowt_force_gen/fast_input_files/Airfoils/NACA64_A17_coords.txt,sha256=yRlCpIQ1Fqt_GxejQWLSHbxAD7tAEbYPg6g6zwjIvew,8272
fowt_force_gen/fast_input_files/HydroData/marin_semi.1,sha256=bQX6HR8VnBwKRKC0-aICkRPHv5a5QnQqFoEmf9_4R5I,503496
fowt_force_gen/fast_input_files/HydroData/marin_semi.12d,sha256=ALLOCSpulJbVbaZIowZDvKtljthzUig3Ulsjf_jYID8,1216232
fowt_force_gen/fast_input_files/HydroData/marin_semi.12s,sha256=YD6Dlcvm2ufe6tVI2RZ-dERYV-dJKJ_sD2w19mji8v4,1216232
fowt_force_gen/fast_input_files/HydroData/marin_semi.3,sha256=iunX57iMVCYZApLZKDoKAE7onG8hn_k_qNUwh-ytb7E,10171152
fowt_force_gen/fast_input_files/HydroData/marin_semi.hst,sha256=upM8GANLrMh6kyJUrUcEfUTu8Aa8FQt2_s00RZZUgtg,1044
fowt_force_gen/fast_input_files/HydroData/spar.1,sha256=TgzjzQrO5LaBS7yNuZnyxwY_9r_EpdzjZFZNMsl_aMA,56840
fowt_force_gen/fast_input_files/HydroData/spar.3,sha256=duPiLTqNtgqZmiAJ4FuCQroZVdNnH48DJf_gFxazVaA,2042400
fowt_force_gen/fast_input_files/HydroData/spar.hst,sha256=rNuBEl3aF6j5To3p_oXczrivYrUW0NlklnktlPUyXM8,1044
fowt_force_gen/fast_input_files/ServoData/DISCON_ITIBarge_Win32.dll,sha256=wJqdJsoyZF__UZReihZ7PUscNc8iBv3ejaU_uXrua_M,357888
fowt_force_gen/fast_input_files/ServoData/DISCON_ITIBarge_x64.dll,sha256=X-tnqozzmTik_30ynBg8V_uRZqNl79Ezqb447ezdkZA,442368
fowt_force_gen/fast_input_files/ServoData/DISCON_OC3Hywind_Win32.dll,sha256=jQHFDSeqIBB7j1nHLt0pWkfb4KsFwmXQ-CAdEg83Veg,357376
fowt_force_gen/fast_input_files/ServoData/DISCON_OC3Hywind_x64.dll,sha256=bemLOFSpRFP2dpYyub2INtxFSxLBjv2ZfgSWDQhsinY,441856
fowt_force_gen/fast_input_files/ServoData/DISCON_Win32.dll,sha256=B3jgoolZYhTzeRJ2gNRPE8ZtYbk-GVjeEjNvsBkGUq4,356864
fowt_force_gen/fast_input_files/ServoData/DISCON_x64.dll,sha256=c6lF-LxIjCNyEjmCCborbjMhUnlnNug4fgOFlgiRLjw,441344
fowt_force_gen/template_files/IECKAI_template.inp,sha256=hWlAqrHpZmQDvajIlrbsyXVzeWfEUpOx-r4lWdQdtOs,6911
fowt_force_gen/template_files/InflowWind_template.dat,sha256=n7hyK0mWYZsCOb_a8Wh1AhTZbmaGEbxQKX5bLQyiHBM,5583
fowt_force_gen/template_files/OC3Hywind_ElastoDyn_template.dat,sha256=YzYn2w8Gfp5nEAZ883Pr3wsLEE1y5F2gz9_s607Nvlc,20043
fowt_force_gen/template_files/OC3Hywind_HydroDyn_template.dat,sha256=8FYmcFc2JXNU8sFV4_rKI9oiuKplA_M63LvU1GN6fhk,17947
fowt_force_gen/template_files/OC3Hywind_MoorDyn_fine_template.dat,sha256=S0iIbQwU7Vh155Y7evidoIe37Gm7UZeFuxnhKOg7vTA,2510
fowt_force_gen/template_files/OC3Hywind_MoorDyn_rough_template.dat,sha256=4OtpD5IiZb63RPdCaDEEPNev5Jwc5qs2HSmKna2QCHQ,2534
fowt_force_gen/template_files/OC3Hywind_OpenFAST_template.fst,sha256=HwdhlsQMoQanvbJ1mwEiXr7MPND7TAtoJKVuk8-dp8o,5815
fowt_force_gen/template_files/OC4Semi_ElastoDyn_template.dat,sha256=jBsH_COP3GPUhAYCThXvWW91tbnoI7EfIwAfLyRPKWk,14047
fowt_force_gen/template_files/OC4Semi_HydroDyn_template.dat,sha256=81X_syFt1PMvA3z-McJT1jud3IBKS7b9Fk-mhVlmCiE,31302
fowt_force_gen/template_files/OC4Semi_MoorDyn_fine_template.dat,sha256=lS7R35chjeJOlLMt7L7VpdAKw0SOxF6QBvis5mS2PdY,2516
fowt_force_gen/template_files/OC4Semi_MoorDyn_rough_template.dat,sha256=RyjG3Yh3RE3dxOZAHOqm2r_Vx5hJdDBzZ-QKuJKgdjo,2540
fowt_force_gen/template_files/OC4Semi_OpenFAST_template.fst,sha256=J2sP-B171aV9_hY2vhD5nRjmf1baJzeDx-OO-DVYn3k,5819
fowt_force_gen/tests/__init__.py,sha256=47DEQpj8HBSa-_TImW-5JCeuQeRkm5NMpJWZG3hSuFU,0
fowt_force_gen/tests/test_buoy.py,sha256=B_fsRosTkmm88CsbrdAlHPFpwR5J3U5zh0tMB4W0eTQ,1282
fowt_force_gen/tests/test_filegen.py,sha256=6A6H8isxI-nP7tNNe5m83ycFdk1ezahlRrhD_s59sFg,9757
fowt_force_gen/tests/test_moortune.py,sha256=645XoW6lseJ2bcA8J0mf4F8-ifqfvOm9vEjVDTVQ3TY,7379
fowt_force_gen/tests/test_parse.py,sha256=cppseDswf6cXgiI2YMr-JHO0aML44fbFt-GN7uH55QI,8788
fowt_force_gen/tests/test_windbins.py,sha256=lxZpdMYHzi37oVHrSZFVCFcpOPdaqxDXN2902vHjR-U,13984
fowt_force_gen/tests/test_data/compare_baseline_surge.csv,sha256=hzGxTOKGviUwxPjPhrkPFB28G8lB70GxMt5LXww-Fx8,159194
fowt_force_gen/tests/test_data/compare_rel.mat,sha256=e5dxlFTveMhXOBM9tN6ar4jeZnG3iH_CfTeQS-_rJR0,9120
fowt_force_gen/tests/test_data/compare_surge.mat,sha256=uSss63TZITmJKgSrtpZca2yygv9trVaJgM-WmtaSJ8E,2648
fowt_force_gen/tests/test_data/test_currentdata_normal.txt,sha256=55NsadrcC0mJ6105jW1rt3gtJz4761_2A9QJ3VmInQo,1123
fowt_force_gen/tests/test_data/test_currentdata_overflow.txt,sha256=aJbLOWxZ1vvtUj4XNheiwYp_vj7k4Ii9ViZ09bhkrac,1322
fowt_force_gen/tests/test_data/test_currentdata_string.txt,sha256=yo33x1OLB-WLSSfrfLHUUFbLcSy2vtMdNksRSi5E1lo,1049
fowt_force_gen/tests/test_data/test_datetime_normal.txt,sha256=bDUwQv3DJnu-yydT72ON4ZyRXUgSS8Wf_8-3Pw0lqJg,204
fowt_force_gen/tests/test_data/test_datetime_oldstyle.txt,sha256=XSpGQSvM_9RD9EJU58Pzilcer2WO0G5A4Uea5fv_TAE,204
fowt_force_gen/tests/test_data/test_datetime_skip.txt,sha256=XsUStkry3JJP3k66HiFYZ_G0wswtWwitgx1k657mDGk,448
fowt_force_gen/tests/test_data/test_metdata_normal.txt,sha256=YrVvXsOcLgj6r8LjKqyiwGNGLVNBVf5j0pEvunXR4iw,978
fowt_force_gen/tests/test_data/test_metdata_overflow.txt,sha256=I5I1UCFbJMatcfHgKP41EM2uhrfl3Xpc-5TPPGZpncI,1528
fowt_force_gen/tests/test_data/test_winddata_normal.txt,sha256=L2Yqw8Lnho_zgH88gPu9p4d9D8GcY914o6zicEsvzAU,481
fowt_force_gen/tests/test_data/test_winddata_overflow.txt,sha256=bIBo9OKUlZrFKU5KAG_99phJMzC-8oo2_YJ8oQN_FcI,410
fowt_force_gen/tests/test_data/test_winddata_realdata.txt,sha256=rorh5NDpWn-D4Y2TrmwgHQ2TK-v0FagGCZkVj7FwKvM,1992801
fowt_force_gen/tests/test_fast/compare_fst_bulk_10mps_0deg_Climate0.fst,sha256=uyRJ3lN5i6CbCbtowD7beDceFXMBi9RahveoWyPUlT8,5929
fowt_force_gen/tests/test_fast/compare_fst_bulk_10mps_0deg_Climate1.fst,sha256=PPtejTHaZWa9OgV8LtrXU5a143usqhcriJP-saVW1Xg,5929
fowt_force_gen/tests/test_fast/compare_fst_bulk_11.4mps_180deg_Climate0.fst,sha256=5bKCzNw2-9pg6c3Twty7g2XQzZHoj3q64vqx_mReMDo,5933
fowt_force_gen/tests/test_fast/compare_fst_bulk_11.4mps_180deg_Climate1.fst,sha256=dCicK0su_qL7KC9fNRkOyXrywLG7g_NFaVZBZcophpA,5933
fowt_force_gen/tests/test_fast/compare_fst_file_1.fst,sha256=evmkeySUT8ivhtivopF8nc8nM29pt0n97VC7dKs0yQs,5808
fowt_force_gen/tests/test_fast/compare_fst_file_2.fst,sha256=aUdjWJBykTQWImNWR8UGRJdOqVlRySludk-2CtiEZQ8,5797
fowt_force_gen/tests/test_fast/compare_fst_file_3.fst,sha256=VrBpHK2CPVFGbTpEtGGldCg4jlQlTPxj6PAm57w8UvI,5805
fowt_force_gen/tests/test_fast/compare_hydrodyn_Climate0.dat,sha256=wOhe77IjgMdiLvhq6Ev_e2fdJHXrk_DYcTGZESgV4sQ,31218
fowt_force_gen/tests/test_fast/compare_hydrodyn_Climate1.dat,sha256=fEjjWMiVj_bLWwgN8GK3ERzNPs_TyfkSG6zMNa1tZaU,31221
fowt_force_gen/tests/test_fast/compare_inflowwind_10mps_0deg.dat,sha256=eGaofKZHZocFvSg7jvQzFqcZUrx4Ueisv4JwlSD9nWo,5627
fowt_force_gen/tests/test_fast/compare_inflowwind_10mps_180deg.dat,sha256=eGaofKZHZocFvSg7jvQzFqcZUrx4Ueisv4JwlSD9nWo,5627
fowt_force_gen/tests/test_fast/compare_inflowwind_11.4mps_0deg.dat,sha256=jXL1u6P5efSj4IMx2Todny-PVmy1Fc1kqJWoz2grJ_Y,5631
fowt_force_gen/tests/test_fast/compare_inflowwind_11.4mps_180deg.dat,sha256=jXL1u6P5efSj4IMx2Todny-PVmy1Fc1kqJWoz2grJ_Y,5631
fowt_force_gen/tests/test_fast/compare_inp_10mps_IECKAI.bts,sha256=Z-r-NWW8I-jKNjrKYYx7ov711nArnjC2lDhzgm7FIfw,12168172
fowt_force_gen/tests/test_fast/compare_inp_10mps_IECKAI.inp,sha256=0W9LDr_YaPNn6QflS7aGMKKFtBKZfYpWAl4p1xMo2EQ,6891
fowt_force_gen/tests/test_fast/compare_inp_11.4mps_IECKAI.bts,sha256=_mWhZf_Aaus9b2C56eK6FmMfGbzAJsBjS3ylCXgliwU,12168172
fowt_force_gen/tests/test_fast/compare_inp_11.4mps_IECKAI.inp,sha256=ueAOtMIDf1lyQyDEuv5aUPpWo5Zh7lwm6OnUWeAID5s,6893
fowt_force_gen/tests/test_fast/compare_md_file_1.dat,sha256=WK-jFSUa4jxGYbQxieqpey96owxIBWSXbFYsJyJ1tl0,2528
fowt_force_gen/tests/test_fast/compare_md_file_2.dat,sha256=esbOQWQtOqkj7zPqafWU4t8CJZviaHr-1Y59Ln3DSuw,2519
fowt_force_gen/tests/test_fast/compare_output.MD.Line1.out,sha256=4MXeHrBEMCUIpKSFif2iNpqiGP-hACtdAsAdg9oyl_k,860
fowt_force_gen/tests/test_fast/compare_output.MD.Line2.out,sha256=2QXMMROq52va9FpNKT_hNtXw9FRYM7_nLhoPTbErojg,860
fowt_force_gen/tests/test_fast/compare_output.MD.Line3.out,sha256=kfpvZ8VFvvy6bmWe3V6mRpRfa7vGCjKlTxfZap01wrM,860
fowt_force_gen/tests/test_fast/compare_output.outb,sha256=U-QP04eIqm8pKWXVUFUnD8cLgQrdDoR7QeJhPrhRyes,10424
fowt_force_gen/tests/test_fast/compare_output_1seg.MD.Line1.out,sha256=XV7OAC-FxK9_1qEJFgoXwcvGFNx0faYxpOvC9LJIo5E,255
fowt_force_gen/tests/test_fast/compare_output_1seg.MD.Line2.out,sha256=XV7OAC-FxK9_1qEJFgoXwcvGFNx0faYxpOvC9LJIo5E,255
fowt_force_gen/tests/test_fast/compare_output_1seg.MD.Line3.out,sha256=XV7OAC-FxK9_1qEJFgoXwcvGFNx0faYxpOvC9LJIo5E,255
fowt_force_gen/tests/test_fast/compare_output_1seg.outb,sha256=AMv_bLW3aRYCWZPG1qpaPyQorTPO7HBkdaDGSd2mIk0,10424
fowt_force_gen/tests/test_fast/compare_tune_fine.fst,sha256=1FuelJO4lXWRweVhr0cwRtkJBsA2KgmukFqqzGnA_MU,5733
fowt_force_gen/tests/test_fast/compare_tune_fine_fewercrossings.outb,sha256=ZUEbWbznolRr_yyCXOZz3rAOn5x1ZIeoOXDbhToCNuc,529749
fowt_force_gen/tests/test_fast/compare_tune_fine_hydrodyn.dat,sha256=-wfsbOgkiFtUtXJdO5gHxy-pZF0q1leB0Dli7Vy09mw,31288
fowt_force_gen/tests/test_fast/compare_tune_fine_moordyn.dat,sha256=384OmOm4ZwvR3l4mSn-fH5kyNKK5c0LJeW869RHMp4Q,2453
fowt_force_gen/tests/test_fast/compare_tune_fine_morecrossings.outb,sha256=T1ttn4dkD6asZ3pRNqQ2-ZSO3d5fZtA65owskJeDDCI,529749
fowt_force_gen/tests/test_fast/compare_tune_fine_samecrossings.outb,sha256=qieeRt31I_IGQCky-ciw8PLzdDnAkkp-rhG3X4Hq4xg,529749
fowt_force_gen/tests/test_fast/compare_tune_fine_untuned.outb,sha256=n_lR0pnlaQO6HY5HgS9gfv17kHAWdu70e4yee5B8hdM,529749
fowt_force_gen/tests/test_fast/compare_tune_rough.fst,sha256=QlcwbHUOfr6IXqLatOtdPCxftbrr_XIdsPDdvIsSIj8,5735
fowt_force_gen/tests/test_fast/compare_tune_rough_hydrodyn.dat,sha256=-wfsbOgkiFtUtXJdO5gHxy-pZF0q1leB0Dli7Vy09mw,31288
fowt_force_gen/tests/test_fast/compare_tune_rough_moordyn.dat,sha256=lcOHwnp31N-CX3GXliSlWKDm_IwNDXZUUkG0zAHObwI,2477
fowt_force_gen/tests/test_fast/compare_tune_rough_nouplift.outb,sha256=vjug2TJTp1-K4XcLqVdQUkBATk4ceLUvCCvctoZA3v4,5599
fowt_force_gen/tests/test_fast/compare_tune_rough_uplift.outb,sha256=VjsyisKnR4SlkUGdP2o6iipTMw_hzh-tJAy6E5Db7KM,5599
fowt_force_gen/tests/test_fast/test.outb,sha256=VtTvw3skw1bHvBB8K2RYcZcq4LgAagseyAR9LU2-tNk,10424
fowt_force_gen/tests/test_fast/test_fst_bulk/compare_hydrodyn_Climate0.dat,sha256=wOhe77IjgMdiLvhq6Ev_e2fdJHXrk_DYcTGZESgV4sQ,31218
fowt_force_gen/tests/test_fast/test_fst_bulk/compare_hydrodyn_Climate1.dat,sha256=fEjjWMiVj_bLWwgN8GK3ERzNPs_TyfkSG6zMNa1tZaU,31221
fowt_force_gen/tests/test_fast/test_fst_bulk/compare_inflowwind_10mps_0deg.dat,sha256=gRfATr3sKyOjGCKp2ThkUtUhsKJ-jhaDw_chtXnBG20,5637
fowt_force_gen/tests/test_fast/test_fst_bulk/compare_inflowwind_11.4mps_180deg.dat,sha256=IkIENYcLUfYxPDqRW46GDRjYE4J4N2oolF1WMDpv1eg,5641
fowt_force_gen/tests/test_fast/test_fst_bulk/other_file_to_check_file_catching.dat,sha256=IkIENYcLUfYxPDqRW46GDRjYE4J4N2oolF1WMDpv1eg,5641
fowt_force_gen/tuning_files/OC3Hywind_tuning_baseline.outb,sha256=D3pvLmRfedIGbO0K81nvKzzkfNM_6hxWKgtrY3FoQKU,1107298
fowt_force_gen/tuning_files/OC3Hywind_tuning_fine.fst,sha256=Kniscso3_62qr3sAsoFlNbRJHUfDQ9xoXjlTwMBNNy8,5706
fowt_force_gen/tuning_files/OC3Hywind_tuning_fine_ElastoDyn.dat,sha256=k1MKciC9m4spIj3JsxLx-WxxEW77BcH5aLgQLLtk_5c,20127
fowt_force_gen/tuning_files/OC3Hywind_tuning_rough.fst,sha256=7mSUzdHih0M2P2SCOoGdinUQc9IT26ooTqMpw3YPKBI,5726
fowt_force_gen/tuning_files/OC3Hywind_tuning_rough_ElastoDyn.dat,sha256=FUIeb8t5hYF8UNkHQa16iXtL4kp6d5O7Zqqhjyv_UNI,20127
fowt_force_gen/tuning_files/OC4Semi_tuning_baseline.outb,sha256=6rpn99ih6pyIlbdTdRb0CWBAvR_P1OYWYovtI6DsWNk,565948
fowt_force_gen/tuning_files/OC4Semi_tuning_fine.fst,sha256=DsFsUF85zbPnbmiQStWUTfPu8yyx65TPZTXYkOq60nE,5714
fowt_force_gen/tuning_files/OC4Semi_tuning_fine_ElastoDyn.dat,sha256=BHQ0xfI3zPVRf3Or6pgfD7kDguESjU1OgWtyNaG36D0,14131
fowt_force_gen/tuning_files/OC4Semi_tuning_rough.fst,sha256=D9JB6RMsxX56HBA_CmaiWbXh1uYArfeKcJGfRuF8oKo,5732
fowt_force_gen/tuning_files/OC4Semi_tuning_rough_ElastoDyn.dat,sha256=J6dYBgm6USI_c1MjCvd_ySO3D7DJ-mf6ymKmBKLC0u0,14131
fowt_force_gen-0.1.0.dist-info/LICENSE,sha256=bWzWCLBPY07N5afO4IQnhxCFNNcpuyO9iwWQoQNKfY4,1123
fowt_force_gen-0.1.0.dist-info/METADATA,sha256=HpZWzu7LTfdOjmTUFncgp_FRqLFjIsvyvZK1uHrAzy8,10287
fowt_force_gen-0.1.0.dist-info/WHEEL,sha256=6T3TYZE4YFi2HTS1BeZHNXAi8N52OZT4O-dJ6-ome_4,116
fowt_force_gen-0.1.0.dist-info/top_level.txt,sha256=FjnhICAtkv8DDQUJ54089aAoDGkt4fwacAYTBb-jT08,15
fowt_force_gen-0.1.0.dist-info/RECORD,,
